
---------- Begin Simulation Statistics ----------
simSeconds                                   2.416535                       # Number of seconds simulated (Second)
simTicks                                 2416534772000                       # Number of ticks simulated (Tick)
finalTick                                2416534772000                       # Number of ticks from beginning of simulation (restored from checkpoints and never reset) (Tick)
simFreq                                  1000000000000                       # The number of ticks per simulated second ((Tick/Second))
hostSeconds                                    603.47                       # Real time elapsed on the host (Second)
hostTickRate                               4004418851                       # The number of ticks simulated per host second (ticks/s) ((Tick/Second))
hostMemory                                     726068                       # Number of bytes of host memory used (Byte)
simInsts                                    429989123                       # Number of instructions simulated (Count)
simOps                                      725725337                       # Number of ops (including micro ops) simulated (Count)
hostInstRate                                   712531                       # Simulator instruction rate (inst/s) ((Count/Second))
hostOpRate                                    1202593                       # Simulator op (including micro ops) rate (op/s) ((Count/Second))
system.clk_domain.clock                          1000                       # Clock period in ticks (Tick)
system.clk_domain.voltage_domain.voltage            1                       # Voltage in Volts (Volt)
system.cpu.numCycles                       2416534772                       # Number of cpu cycles simulated (Cycle)
system.cpu.numWorkItemsStarted                      0                       # Number of work items this cpu started (Count)
system.cpu.numWorkItemsCompleted                    0                       # Number of work items this cpu completed (Count)
system.cpu.dcache.demandHits::cpu.data      368429427                       # number of demand (read+write) hits (Count)
system.cpu.dcache.demandHits::total         368429427                       # number of demand (read+write) hits (Count)
system.cpu.dcache.overallHits::cpu.data     368429427                       # number of overall hits (Count)
system.cpu.dcache.overallHits::total        368429427                       # number of overall hits (Count)
system.cpu.dcache.demandMisses::cpu.data      8679480                       # number of demand (read+write) misses (Count)
system.cpu.dcache.demandMisses::total         8679480                       # number of demand (read+write) misses (Count)
system.cpu.dcache.overallMisses::cpu.data      8679480                       # number of overall misses (Count)
system.cpu.dcache.overallMisses::total        8679480                       # number of overall misses (Count)
system.cpu.dcache.demandMissLatency::cpu.data 602486262000                       # number of demand (read+write) miss ticks (Tick)
system.cpu.dcache.demandMissLatency::total 602486262000                       # number of demand (read+write) miss ticks (Tick)
system.cpu.dcache.overallMissLatency::cpu.data 602486262000                       # number of overall miss ticks (Tick)
system.cpu.dcache.overallMissLatency::total 602486262000                       # number of overall miss ticks (Tick)
system.cpu.dcache.demandAccesses::cpu.data    377108907                       # number of demand (read+write) accesses (Count)
system.cpu.dcache.demandAccesses::total     377108907                       # number of demand (read+write) accesses (Count)
system.cpu.dcache.overallAccesses::cpu.data    377108907                       # number of overall (read+write) accesses (Count)
system.cpu.dcache.overallAccesses::total    377108907                       # number of overall (read+write) accesses (Count)
system.cpu.dcache.demandMissRate::cpu.data     0.023016                       # miss rate for demand accesses (Ratio)
system.cpu.dcache.demandMissRate::total      0.023016                       # miss rate for demand accesses (Ratio)
system.cpu.dcache.overallMissRate::cpu.data     0.023016                       # miss rate for overall accesses (Ratio)
system.cpu.dcache.overallMissRate::total     0.023016                       # miss rate for overall accesses (Ratio)
system.cpu.dcache.demandAvgMissLatency::cpu.data 69415.018181                       # average overall miss latency in ticks ((Tick/Count))
system.cpu.dcache.demandAvgMissLatency::total 69415.018181                       # average overall miss latency in ticks ((Tick/Count))
system.cpu.dcache.overallAvgMissLatency::cpu.data 69415.018181                       # average overall miss latency ((Tick/Count))
system.cpu.dcache.overallAvgMissLatency::total 69415.018181                       # average overall miss latency ((Tick/Count))
system.cpu.dcache.blockedCycles::no_mshrs            0                       # number of cycles access was blocked (Cycle)
system.cpu.dcache.blockedCycles::no_targets            0                       # number of cycles access was blocked (Cycle)
system.cpu.dcache.blockedCauses::no_mshrs            0                       # number of times access was blocked (Count)
system.cpu.dcache.blockedCauses::no_targets            0                       # number of times access was blocked (Count)
system.cpu.dcache.avgBlocked::no_mshrs            nan                       # average number of cycles each access was blocked ((Cycle/Count))
system.cpu.dcache.avgBlocked::no_targets          nan                       # average number of cycles each access was blocked ((Cycle/Count))
system.cpu.dcache.writebacks::writebacks      8677184                       # number of writebacks (Count)
system.cpu.dcache.writebacks::total           8677184                       # number of writebacks (Count)
system.cpu.dcache.demandMshrMisses::cpu.data      8679480                       # number of demand (read+write) MSHR misses (Count)
system.cpu.dcache.demandMshrMisses::total      8679480                       # number of demand (read+write) MSHR misses (Count)
system.cpu.dcache.overallMshrMisses::cpu.data      8679480                       # number of overall MSHR misses (Count)
system.cpu.dcache.overallMshrMisses::total      8679480                       # number of overall MSHR misses (Count)
system.cpu.dcache.demandMshrMissLatency::cpu.data 585127302000                       # number of demand (read+write) MSHR miss ticks (Tick)
system.cpu.dcache.demandMshrMissLatency::total 585127302000                       # number of demand (read+write) MSHR miss ticks (Tick)
system.cpu.dcache.overallMshrMissLatency::cpu.data 585127302000                       # number of overall MSHR miss ticks (Tick)
system.cpu.dcache.overallMshrMissLatency::total 585127302000                       # number of overall MSHR miss ticks (Tick)
system.cpu.dcache.demandMshrMissRate::cpu.data     0.023016                       # mshr miss ratio for demand accesses (Ratio)
system.cpu.dcache.demandMshrMissRate::total     0.023016                       # mshr miss ratio for demand accesses (Ratio)
system.cpu.dcache.overallMshrMissRate::cpu.data     0.023016                       # mshr miss ratio for overall accesses (Ratio)
system.cpu.dcache.overallMshrMissRate::total     0.023016                       # mshr miss ratio for overall accesses (Ratio)
system.cpu.dcache.demandAvgMshrMissLatency::cpu.data 67415.018181                       # average overall mshr miss latency ((Tick/Count))
system.cpu.dcache.demandAvgMshrMissLatency::total 67415.018181                       # average overall mshr miss latency ((Tick/Count))
system.cpu.dcache.overallAvgMshrMissLatency::cpu.data 67415.018181                       # average overall mshr miss latency ((Tick/Count))
system.cpu.dcache.overallAvgMshrMissLatency::total 67415.018181                       # average overall mshr miss latency ((Tick/Count))
system.cpu.dcache.replacements                8677425                       # number of replacements (Count)
system.cpu.dcache.LockedRMWReadReq.hits::cpu.data            5                       # number of LockedRMWReadReq hits (Count)
system.cpu.dcache.LockedRMWReadReq.hits::total            5                       # number of LockedRMWReadReq hits (Count)
system.cpu.dcache.LockedRMWReadReq.misses::cpu.data            1                       # number of LockedRMWReadReq misses (Count)
system.cpu.dcache.LockedRMWReadReq.misses::total            1                       # number of LockedRMWReadReq misses (Count)
system.cpu.dcache.LockedRMWReadReq.missLatency::cpu.data        26000                       # number of LockedRMWReadReq miss ticks (Tick)
system.cpu.dcache.LockedRMWReadReq.missLatency::total        26000                       # number of LockedRMWReadReq miss ticks (Tick)
system.cpu.dcache.LockedRMWReadReq.accesses::cpu.data            6                       # number of LockedRMWReadReq accesses(hits+misses) (Count)
system.cpu.dcache.LockedRMWReadReq.accesses::total            6                       # number of LockedRMWReadReq accesses(hits+misses) (Count)
system.cpu.dcache.LockedRMWReadReq.missRate::cpu.data     0.166667                       # miss rate for LockedRMWReadReq accesses (Ratio)
system.cpu.dcache.LockedRMWReadReq.missRate::total     0.166667                       # miss rate for LockedRMWReadReq accesses (Ratio)
system.cpu.dcache.LockedRMWReadReq.avgMissLatency::cpu.data        26000                       # average LockedRMWReadReq miss latency ((Tick/Count))
system.cpu.dcache.LockedRMWReadReq.avgMissLatency::total        26000                       # average LockedRMWReadReq miss latency ((Tick/Count))
system.cpu.dcache.LockedRMWReadReq.mshrMisses::cpu.data            1                       # number of LockedRMWReadReq MSHR misses (Count)
system.cpu.dcache.LockedRMWReadReq.mshrMisses::total            1                       # number of LockedRMWReadReq MSHR misses (Count)
system.cpu.dcache.LockedRMWReadReq.mshrMissLatency::cpu.data        60000                       # number of LockedRMWReadReq MSHR miss ticks (Tick)
system.cpu.dcache.LockedRMWReadReq.mshrMissLatency::total        60000                       # number of LockedRMWReadReq MSHR miss ticks (Tick)
system.cpu.dcache.LockedRMWReadReq.mshrMissRate::cpu.data     0.166667                       # mshr miss rate for LockedRMWReadReq accesses (Ratio)
system.cpu.dcache.LockedRMWReadReq.mshrMissRate::total     0.166667                       # mshr miss rate for LockedRMWReadReq accesses (Ratio)
system.cpu.dcache.LockedRMWReadReq.avgMshrMissLatency::cpu.data        60000                       # average LockedRMWReadReq mshr miss latency ((Tick/Count))
system.cpu.dcache.LockedRMWReadReq.avgMshrMissLatency::total        60000                       # average LockedRMWReadReq mshr miss latency ((Tick/Count))
system.cpu.dcache.LockedRMWWriteReq.hits::cpu.data            6                       # number of LockedRMWWriteReq hits (Count)
system.cpu.dcache.LockedRMWWriteReq.hits::total            6                       # number of LockedRMWWriteReq hits (Count)
system.cpu.dcache.LockedRMWWriteReq.accesses::cpu.data            6                       # number of LockedRMWWriteReq accesses(hits+misses) (Count)
system.cpu.dcache.LockedRMWWriteReq.accesses::total            6                       # number of LockedRMWWriteReq accesses(hits+misses) (Count)
system.cpu.dcache.ReadReq.hits::cpu.data    288543290                       # number of ReadReq hits (Count)
system.cpu.dcache.ReadReq.hits::total       288543290                       # number of ReadReq hits (Count)
system.cpu.dcache.ReadReq.misses::cpu.data         5070                       # number of ReadReq misses (Count)
system.cpu.dcache.ReadReq.misses::total          5070                       # number of ReadReq misses (Count)
system.cpu.dcache.ReadReq.missLatency::cpu.data    307816000                       # number of ReadReq miss ticks (Tick)
system.cpu.dcache.ReadReq.missLatency::total    307816000                       # number of ReadReq miss ticks (Tick)
system.cpu.dcache.ReadReq.accesses::cpu.data    288548360                       # number of ReadReq accesses(hits+misses) (Count)
system.cpu.dcache.ReadReq.accesses::total    288548360                       # number of ReadReq accesses(hits+misses) (Count)
system.cpu.dcache.ReadReq.missRate::cpu.data     0.000018                       # miss rate for ReadReq accesses (Ratio)
system.cpu.dcache.ReadReq.missRate::total     0.000018                       # miss rate for ReadReq accesses (Ratio)
system.cpu.dcache.ReadReq.avgMissLatency::cpu.data 60713.214990                       # average ReadReq miss latency ((Tick/Count))
system.cpu.dcache.ReadReq.avgMissLatency::total 60713.214990                       # average ReadReq miss latency ((Tick/Count))
system.cpu.dcache.ReadReq.mshrMisses::cpu.data         5070                       # number of ReadReq MSHR misses (Count)
system.cpu.dcache.ReadReq.mshrMisses::total         5070                       # number of ReadReq MSHR misses (Count)
system.cpu.dcache.ReadReq.mshrMissLatency::cpu.data    297676000                       # number of ReadReq MSHR miss ticks (Tick)
system.cpu.dcache.ReadReq.mshrMissLatency::total    297676000                       # number of ReadReq MSHR miss ticks (Tick)
system.cpu.dcache.ReadReq.mshrMissRate::cpu.data     0.000018                       # mshr miss rate for ReadReq accesses (Ratio)
system.cpu.dcache.ReadReq.mshrMissRate::total     0.000018                       # mshr miss rate for ReadReq accesses (Ratio)
system.cpu.dcache.ReadReq.avgMshrMissLatency::cpu.data 58713.214990                       # average ReadReq mshr miss latency ((Tick/Count))
system.cpu.dcache.ReadReq.avgMshrMissLatency::total 58713.214990                       # average ReadReq mshr miss latency ((Tick/Count))
system.cpu.dcache.WriteReq.hits::cpu.data     79886137                       # number of WriteReq hits (Count)
system.cpu.dcache.WriteReq.hits::total       79886137                       # number of WriteReq hits (Count)
system.cpu.dcache.WriteReq.misses::cpu.data      8674410                       # number of WriteReq misses (Count)
system.cpu.dcache.WriteReq.misses::total      8674410                       # number of WriteReq misses (Count)
system.cpu.dcache.WriteReq.missLatency::cpu.data 602178446000                       # number of WriteReq miss ticks (Tick)
system.cpu.dcache.WriteReq.missLatency::total 602178446000                       # number of WriteReq miss ticks (Tick)
system.cpu.dcache.WriteReq.accesses::cpu.data     88560547                       # number of WriteReq accesses(hits+misses) (Count)
system.cpu.dcache.WriteReq.accesses::total     88560547                       # number of WriteReq accesses(hits+misses) (Count)
system.cpu.dcache.WriteReq.missRate::cpu.data     0.097949                       # miss rate for WriteReq accesses (Ratio)
system.cpu.dcache.WriteReq.missRate::total     0.097949                       # miss rate for WriteReq accesses (Ratio)
system.cpu.dcache.WriteReq.avgMissLatency::cpu.data 69420.104192                       # average WriteReq miss latency ((Tick/Count))
system.cpu.dcache.WriteReq.avgMissLatency::total 69420.104192                       # average WriteReq miss latency ((Tick/Count))
system.cpu.dcache.WriteReq.mshrMisses::cpu.data      8674410                       # number of WriteReq MSHR misses (Count)
system.cpu.dcache.WriteReq.mshrMisses::total      8674410                       # number of WriteReq MSHR misses (Count)
system.cpu.dcache.WriteReq.mshrMissLatency::cpu.data 584829626000                       # number of WriteReq MSHR miss ticks (Tick)
system.cpu.dcache.WriteReq.mshrMissLatency::total 584829626000                       # number of WriteReq MSHR miss ticks (Tick)
system.cpu.dcache.WriteReq.mshrMissRate::cpu.data     0.097949                       # mshr miss rate for WriteReq accesses (Ratio)
system.cpu.dcache.WriteReq.mshrMissRate::total     0.097949                       # mshr miss rate for WriteReq accesses (Ratio)
system.cpu.dcache.WriteReq.avgMshrMissLatency::cpu.data 67420.104192                       # average WriteReq mshr miss latency ((Tick/Count))
system.cpu.dcache.WriteReq.avgMshrMissLatency::total 67420.104192                       # average WriteReq mshr miss latency ((Tick/Count))
system.cpu.dcache.power_state.pwrStateResidencyTicks::UNDEFINED 2416534772000                       # Cumulative time (in ticks) in various power states (Tick)
system.cpu.dcache.tags.tagsInUse          2044.205704                       # Average ticks per tags in use ((Tick/Count))
system.cpu.dcache.tags.totalRefs            377108919                       # Total number of references to valid blocks. (Count)
system.cpu.dcache.tags.sampledRefs            8679473                       # Sample count of references to valid blocks. (Count)
system.cpu.dcache.tags.avgRefs              43.448366                       # Average number of references to valid blocks. ((Count/Count))
system.cpu.dcache.tags.warmupTick              342000                       # The tick when the warmup percentage was hit. (Tick)
system.cpu.dcache.tags.occupancies::cpu.data  2044.205704                       # Average occupied blocks per tick, per requestor ((Count/Tick))
system.cpu.dcache.tags.avgOccs::cpu.data     0.998147                       # Average percentage of cache occupancy ((Ratio/Tick))
system.cpu.dcache.tags.avgOccs::total        0.998147                       # Average percentage of cache occupancy ((Ratio/Tick))
system.cpu.dcache.tags.occupanciesTaskId::1024         2048                       # Occupied blocks per task id (Count)
system.cpu.dcache.tags.ageTaskId_1024::0           17                       # Occupied blocks per task id, per block age (Count)
system.cpu.dcache.tags.ageTaskId_1024::1          563                       # Occupied blocks per task id, per block age (Count)
system.cpu.dcache.tags.ageTaskId_1024::2         1430                       # Occupied blocks per task id, per block age (Count)
system.cpu.dcache.tags.ageTaskId_1024::3           38                       # Occupied blocks per task id, per block age (Count)
system.cpu.dcache.tags.ratioOccsTaskId::1024            1                       # Ratio of occupied blocks and all blocks, per task id (Ratio)
system.cpu.dcache.tags.tagAccesses          762897311                       # Number of tag accesses (Count)
system.cpu.dcache.tags.dataAccesses         762897311                       # Number of data accesses (Count)
system.cpu.dcache.tags.power_state.pwrStateResidencyTicks::UNDEFINED 2416534772000                       # Cumulative time (in ticks) in various power states (Tick)
system.cpu.exec_context.thread_0.numInsts    429989123                       # Number of instructions committed (Count)
system.cpu.exec_context.thread_0.numOps     725725337                       # Number of ops (including micro ops) committed (Count)
system.cpu.exec_context.thread_0.numIntAluAccesses    725727458                       # Number of integer alu accesses (Count)
system.cpu.exec_context.thread_0.numFpAluAccesses            0                       # Number of float alu accesses (Count)
system.cpu.exec_context.thread_0.numVecAluAccesses            0                       # Number of vector alu accesses (Count)
system.cpu.exec_context.thread_0.numCallsReturns          554                       # Number of times a function call or return occured (Count)
system.cpu.exec_context.thread_0.numCondCtrlInsts     32858366                       # Number of instructions that are conditional controls (Count)
system.cpu.exec_context.thread_0.numIntInsts    725727458                       # Number of integer instructions (Count)
system.cpu.exec_context.thread_0.numFpInsts            0                       # Number of float instructions (Count)
system.cpu.exec_context.thread_0.numVecInsts            0                       # Number of vector instructions (Count)
system.cpu.exec_context.thread_0.numIntRegReads   1011464516                       # Number of times the integer registers were read (Count)
system.cpu.exec_context.thread_0.numIntRegWrites    571450964                       # Number of times the integer registers were written (Count)
system.cpu.exec_context.thread_0.numFpRegReads            0                       # Number of times the floating registers were read (Count)
system.cpu.exec_context.thread_0.numFpRegWrites            0                       # Number of times the floating registers were written (Count)
system.cpu.exec_context.thread_0.numVecRegReads            0                       # Number of times the vector registers were read (Count)
system.cpu.exec_context.thread_0.numVecRegWrites            0                       # Number of times the vector registers were written (Count)
system.cpu.exec_context.thread_0.numVecPredRegReads            0                       # Number of times the predicate registers were read (Count)
system.cpu.exec_context.thread_0.numVecPredRegWrites            0                       # Number of times the predicate registers were written (Count)
system.cpu.exec_context.thread_0.numCCRegReads    220003849                       # Number of times the CC registers were read (Count)
system.cpu.exec_context.thread_0.numCCRegWrites    308564709                       # Number of times the CC registers were written (Count)
system.cpu.exec_context.thread_0.numMiscRegReads    442829452                       # Number of times the Misc registers were read (Count)
system.cpu.exec_context.thread_0.numMiscRegWrites            4                       # Number of times the Misc registers were written (Count)
system.cpu.exec_context.thread_0.numMemRefs    377111360                       # Number of memory refs (Count)
system.cpu.exec_context.thread_0.numLoadInsts    288548364                       # Number of load instructions (Count)
system.cpu.exec_context.thread_0.numStoreInsts     88562996                       # Number of store instructions (Count)
system.cpu.exec_context.thread_0.numIdleCycles     0.001000                       # Number of idle cycles (Cycle)
system.cpu.exec_context.thread_0.numBusyCycles 2416534771.999000                       # Number of busy cycles (Cycle)
system.cpu.exec_context.thread_0.notIdleFraction     1.000000                       # Percentage of non-idle cycles (Ratio)
system.cpu.exec_context.thread_0.idleFraction     0.000000                       # Percentage of idle cycles (Ratio)
system.cpu.exec_context.thread_0.numBranches     32859484                       # Number of branches fetched (Count)
system.cpu.exec_context.thread_0.statExecutedInstType::No_OpClass           15      0.00%      0.00% # Class of executed instruction. (Count)
system.cpu.exec_context.thread_0.statExecutedInstType::IntAlu    348605524     48.04%     48.04% # Class of executed instruction. (Count)
system.cpu.exec_context.thread_0.statExecutedInstType::IntMult        10873      0.00%     48.04% # Class of executed instruction. (Count)
system.cpu.exec_context.thread_0.statExecutedInstType::IntDiv           21      0.00%     48.04% # Class of executed instruction. (Count)
system.cpu.exec_context.thread_0.statExecutedInstType::FloatAdd            0      0.00%     48.04% # Class of executed instruction. (Count)
system.cpu.exec_context.thread_0.statExecutedInstType::FloatCmp            0      0.00%     48.04% # Class of executed instruction. (Count)
system.cpu.exec_context.thread_0.statExecutedInstType::FloatCvt            0      0.00%     48.04% # Class of executed instruction. (Count)
system.cpu.exec_context.thread_0.statExecutedInstType::FloatMult            0      0.00%     48.04% # Class of executed instruction. (Count)
system.cpu.exec_context.thread_0.statExecutedInstType::FloatMultAcc            0      0.00%     48.04% # Class of executed instruction. (Count)
system.cpu.exec_context.thread_0.statExecutedInstType::FloatDiv            0      0.00%     48.04% # Class of executed instruction. (Count)
system.cpu.exec_context.thread_0.statExecutedInstType::FloatMisc            0      0.00%     48.04% # Class of executed instruction. (Count)
system.cpu.exec_context.thread_0.statExecutedInstType::FloatSqrt            0      0.00%     48.04% # Class of executed instruction. (Count)
system.cpu.exec_context.thread_0.statExecutedInstType::SimdAdd            0      0.00%     48.04% # Class of executed instruction. (Count)
system.cpu.exec_context.thread_0.statExecutedInstType::SimdAddAcc            0      0.00%     48.04% # Class of executed instruction. (Count)
system.cpu.exec_context.thread_0.statExecutedInstType::SimdAlu            0      0.00%     48.04% # Class of executed instruction. (Count)
system.cpu.exec_context.thread_0.statExecutedInstType::SimdCmp            0      0.00%     48.04% # Class of executed instruction. (Count)
system.cpu.exec_context.thread_0.statExecutedInstType::SimdCvt            0      0.00%     48.04% # Class of executed instruction. (Count)
system.cpu.exec_context.thread_0.statExecutedInstType::SimdMisc            0      0.00%     48.04% # Class of executed instruction. (Count)
system.cpu.exec_context.thread_0.statExecutedInstType::SimdMult            0      0.00%     48.04% # Class of executed instruction. (Count)
system.cpu.exec_context.thread_0.statExecutedInstType::SimdMultAcc            0      0.00%     48.04% # Class of executed instruction. (Count)
system.cpu.exec_context.thread_0.statExecutedInstType::SimdShift            0      0.00%     48.04% # Class of executed instruction. (Count)
system.cpu.exec_context.thread_0.statExecutedInstType::SimdShiftAcc            0      0.00%     48.04% # Class of executed instruction. (Count)
system.cpu.exec_context.thread_0.statExecutedInstType::SimdDiv            0      0.00%     48.04% # Class of executed instruction. (Count)
system.cpu.exec_context.thread_0.statExecutedInstType::SimdSqrt            0      0.00%     48.04% # Class of executed instruction. (Count)
system.cpu.exec_context.thread_0.statExecutedInstType::SimdFloatAdd            0      0.00%     48.04% # Class of executed instruction. (Count)
system.cpu.exec_context.thread_0.statExecutedInstType::SimdFloatAlu            0      0.00%     48.04% # Class of executed instruction. (Count)
system.cpu.exec_context.thread_0.statExecutedInstType::SimdFloatCmp            0      0.00%     48.04% # Class of executed instruction. (Count)
system.cpu.exec_context.thread_0.statExecutedInstType::SimdFloatCvt            0      0.00%     48.04% # Class of executed instruction. (Count)
system.cpu.exec_context.thread_0.statExecutedInstType::SimdFloatDiv            0      0.00%     48.04% # Class of executed instruction. (Count)
system.cpu.exec_context.thread_0.statExecutedInstType::SimdFloatMisc            0      0.00%     48.04% # Class of executed instruction. (Count)
system.cpu.exec_context.thread_0.statExecutedInstType::SimdFloatMult            0      0.00%     48.04% # Class of executed instruction. (Count)
system.cpu.exec_context.thread_0.statExecutedInstType::SimdFloatMultAcc            0      0.00%     48.04% # Class of executed instruction. (Count)
system.cpu.exec_context.thread_0.statExecutedInstType::SimdFloatSqrt            0      0.00%     48.04% # Class of executed instruction. (Count)
system.cpu.exec_context.thread_0.statExecutedInstType::SimdReduceAdd            0      0.00%     48.04% # Class of executed instruction. (Count)
system.cpu.exec_context.thread_0.statExecutedInstType::SimdReduceAlu            0      0.00%     48.04% # Class of executed instruction. (Count)
system.cpu.exec_context.thread_0.statExecutedInstType::SimdReduceCmp            0      0.00%     48.04% # Class of executed instruction. (Count)
system.cpu.exec_context.thread_0.statExecutedInstType::SimdFloatReduceAdd            0      0.00%     48.04% # Class of executed instruction. (Count)
system.cpu.exec_context.thread_0.statExecutedInstType::SimdFloatReduceCmp            0      0.00%     48.04% # Class of executed instruction. (Count)
system.cpu.exec_context.thread_0.statExecutedInstType::SimdAes            0      0.00%     48.04% # Class of executed instruction. (Count)
system.cpu.exec_context.thread_0.statExecutedInstType::SimdAesMix            0      0.00%     48.04% # Class of executed instruction. (Count)
system.cpu.exec_context.thread_0.statExecutedInstType::SimdSha1Hash            0      0.00%     48.04% # Class of executed instruction. (Count)
system.cpu.exec_context.thread_0.statExecutedInstType::SimdSha1Hash2            0      0.00%     48.04% # Class of executed instruction. (Count)
system.cpu.exec_context.thread_0.statExecutedInstType::SimdSha256Hash            0      0.00%     48.04% # Class of executed instruction. (Count)
system.cpu.exec_context.thread_0.statExecutedInstType::SimdSha256Hash2            0      0.00%     48.04% # Class of executed instruction. (Count)
system.cpu.exec_context.thread_0.statExecutedInstType::SimdShaSigma2            0      0.00%     48.04% # Class of executed instruction. (Count)
system.cpu.exec_context.thread_0.statExecutedInstType::SimdShaSigma3            0      0.00%     48.04% # Class of executed instruction. (Count)
system.cpu.exec_context.thread_0.statExecutedInstType::SimdPredAlu            0      0.00%     48.04% # Class of executed instruction. (Count)
system.cpu.exec_context.thread_0.statExecutedInstType::MemRead    288548364     39.76%     87.80% # Class of executed instruction. (Count)
system.cpu.exec_context.thread_0.statExecutedInstType::MemWrite     88562996     12.20%    100.00% # Class of executed instruction. (Count)
system.cpu.exec_context.thread_0.statExecutedInstType::FloatMemRead            0      0.00%    100.00% # Class of executed instruction. (Count)
system.cpu.exec_context.thread_0.statExecutedInstType::FloatMemWrite            0      0.00%    100.00% # Class of executed instruction. (Count)
system.cpu.exec_context.thread_0.statExecutedInstType::IprAccess            0      0.00%    100.00% # Class of executed instruction. (Count)
system.cpu.exec_context.thread_0.statExecutedInstType::InstPrefetch            0      0.00%    100.00% # Class of executed instruction. (Count)
system.cpu.exec_context.thread_0.statExecutedInstType::total    725727793                       # Class of executed instruction. (Count)
system.cpu.icache.demandHits::cpu.inst      538564102                       # number of demand (read+write) hits (Count)
system.cpu.icache.demandHits::total         538564102                       # number of demand (read+write) hits (Count)
system.cpu.icache.overallHits::cpu.inst     538564102                       # number of overall hits (Count)
system.cpu.icache.overallHits::total        538564102                       # number of overall hits (Count)
system.cpu.icache.demandMisses::cpu.inst          379                       # number of demand (read+write) misses (Count)
system.cpu.icache.demandMisses::total             379                       # number of demand (read+write) misses (Count)
system.cpu.icache.overallMisses::cpu.inst          379                       # number of overall misses (Count)
system.cpu.icache.overallMisses::total            379                       # number of overall misses (Count)
system.cpu.icache.demandMissLatency::cpu.inst     61407000                       # number of demand (read+write) miss ticks (Tick)
system.cpu.icache.demandMissLatency::total     61407000                       # number of demand (read+write) miss ticks (Tick)
system.cpu.icache.overallMissLatency::cpu.inst     61407000                       # number of overall miss ticks (Tick)
system.cpu.icache.overallMissLatency::total     61407000                       # number of overall miss ticks (Tick)
system.cpu.icache.demandAccesses::cpu.inst    538564481                       # number of demand (read+write) accesses (Count)
system.cpu.icache.demandAccesses::total     538564481                       # number of demand (read+write) accesses (Count)
system.cpu.icache.overallAccesses::cpu.inst    538564481                       # number of overall (read+write) accesses (Count)
system.cpu.icache.overallAccesses::total    538564481                       # number of overall (read+write) accesses (Count)
system.cpu.icache.demandMissRate::cpu.inst     0.000001                       # miss rate for demand accesses (Ratio)
system.cpu.icache.demandMissRate::total      0.000001                       # miss rate for demand accesses (Ratio)
system.cpu.icache.overallMissRate::cpu.inst     0.000001                       # miss rate for overall accesses (Ratio)
system.cpu.icache.overallMissRate::total     0.000001                       # miss rate for overall accesses (Ratio)
system.cpu.icache.demandAvgMissLatency::cpu.inst 162023.746702                       # average overall miss latency in ticks ((Tick/Count))
system.cpu.icache.demandAvgMissLatency::total 162023.746702                       # average overall miss latency in ticks ((Tick/Count))
system.cpu.icache.overallAvgMissLatency::cpu.inst 162023.746702                       # average overall miss latency ((Tick/Count))
system.cpu.icache.overallAvgMissLatency::total 162023.746702                       # average overall miss latency ((Tick/Count))
system.cpu.icache.blockedCycles::no_mshrs            0                       # number of cycles access was blocked (Cycle)
system.cpu.icache.blockedCycles::no_targets            0                       # number of cycles access was blocked (Cycle)
system.cpu.icache.blockedCauses::no_mshrs            0                       # number of times access was blocked (Count)
system.cpu.icache.blockedCauses::no_targets            0                       # number of times access was blocked (Count)
system.cpu.icache.avgBlocked::no_mshrs            nan                       # average number of cycles each access was blocked ((Cycle/Count))
system.cpu.icache.avgBlocked::no_targets          nan                       # average number of cycles each access was blocked ((Cycle/Count))
system.cpu.icache.demandMshrMisses::cpu.inst          379                       # number of demand (read+write) MSHR misses (Count)
system.cpu.icache.demandMshrMisses::total          379                       # number of demand (read+write) MSHR misses (Count)
system.cpu.icache.overallMshrMisses::cpu.inst          379                       # number of overall MSHR misses (Count)
system.cpu.icache.overallMshrMisses::total          379                       # number of overall MSHR misses (Count)
system.cpu.icache.demandMshrMissLatency::cpu.inst     60649000                       # number of demand (read+write) MSHR miss ticks (Tick)
system.cpu.icache.demandMshrMissLatency::total     60649000                       # number of demand (read+write) MSHR miss ticks (Tick)
system.cpu.icache.overallMshrMissLatency::cpu.inst     60649000                       # number of overall MSHR miss ticks (Tick)
system.cpu.icache.overallMshrMissLatency::total     60649000                       # number of overall MSHR miss ticks (Tick)
system.cpu.icache.demandMshrMissRate::cpu.inst     0.000001                       # mshr miss ratio for demand accesses (Ratio)
system.cpu.icache.demandMshrMissRate::total     0.000001                       # mshr miss ratio for demand accesses (Ratio)
system.cpu.icache.overallMshrMissRate::cpu.inst     0.000001                       # mshr miss ratio for overall accesses (Ratio)
system.cpu.icache.overallMshrMissRate::total     0.000001                       # mshr miss ratio for overall accesses (Ratio)
system.cpu.icache.demandAvgMshrMissLatency::cpu.inst 160023.746702                       # average overall mshr miss latency ((Tick/Count))
system.cpu.icache.demandAvgMshrMissLatency::total 160023.746702                       # average overall mshr miss latency ((Tick/Count))
system.cpu.icache.overallAvgMshrMissLatency::cpu.inst 160023.746702                       # average overall mshr miss latency ((Tick/Count))
system.cpu.icache.overallAvgMshrMissLatency::total 160023.746702                       # average overall mshr miss latency ((Tick/Count))
system.cpu.icache.replacements                    156                       # number of replacements (Count)
system.cpu.icache.ReadReq.hits::cpu.inst    538564102                       # number of ReadReq hits (Count)
system.cpu.icache.ReadReq.hits::total       538564102                       # number of ReadReq hits (Count)
system.cpu.icache.ReadReq.misses::cpu.inst          379                       # number of ReadReq misses (Count)
system.cpu.icache.ReadReq.misses::total           379                       # number of ReadReq misses (Count)
system.cpu.icache.ReadReq.missLatency::cpu.inst     61407000                       # number of ReadReq miss ticks (Tick)
system.cpu.icache.ReadReq.missLatency::total     61407000                       # number of ReadReq miss ticks (Tick)
system.cpu.icache.ReadReq.accesses::cpu.inst    538564481                       # number of ReadReq accesses(hits+misses) (Count)
system.cpu.icache.ReadReq.accesses::total    538564481                       # number of ReadReq accesses(hits+misses) (Count)
system.cpu.icache.ReadReq.missRate::cpu.inst     0.000001                       # miss rate for ReadReq accesses (Ratio)
system.cpu.icache.ReadReq.missRate::total     0.000001                       # miss rate for ReadReq accesses (Ratio)
system.cpu.icache.ReadReq.avgMissLatency::cpu.inst 162023.746702                       # average ReadReq miss latency ((Tick/Count))
system.cpu.icache.ReadReq.avgMissLatency::total 162023.746702                       # average ReadReq miss latency ((Tick/Count))
system.cpu.icache.ReadReq.mshrMisses::cpu.inst          379                       # number of ReadReq MSHR misses (Count)
system.cpu.icache.ReadReq.mshrMisses::total          379                       # number of ReadReq MSHR misses (Count)
system.cpu.icache.ReadReq.mshrMissLatency::cpu.inst     60649000                       # number of ReadReq MSHR miss ticks (Tick)
system.cpu.icache.ReadReq.mshrMissLatency::total     60649000                       # number of ReadReq MSHR miss ticks (Tick)
system.cpu.icache.ReadReq.mshrMissRate::cpu.inst     0.000001                       # mshr miss rate for ReadReq accesses (Ratio)
system.cpu.icache.ReadReq.mshrMissRate::total     0.000001                       # mshr miss rate for ReadReq accesses (Ratio)
system.cpu.icache.ReadReq.avgMshrMissLatency::cpu.inst 160023.746702                       # average ReadReq mshr miss latency ((Tick/Count))
system.cpu.icache.ReadReq.avgMshrMissLatency::total 160023.746702                       # average ReadReq mshr miss latency ((Tick/Count))
system.cpu.icache.power_state.pwrStateResidencyTicks::UNDEFINED 2416534772000                       # Cumulative time (in ticks) in various power states (Tick)
system.cpu.icache.tags.tagsInUse           215.996421                       # Average ticks per tags in use ((Tick/Count))
system.cpu.icache.tags.totalRefs            538564481                       # Total number of references to valid blocks. (Count)
system.cpu.icache.tags.sampledRefs                379                       # Sample count of references to valid blocks. (Count)
system.cpu.icache.tags.avgRefs           1421014.461741                       # Average number of references to valid blocks. ((Count/Count))
system.cpu.icache.tags.warmupTick              169000                       # The tick when the warmup percentage was hit. (Tick)
system.cpu.icache.tags.occupancies::cpu.inst   215.996421                       # Average occupied blocks per tick, per requestor ((Count/Tick))
system.cpu.icache.tags.avgOccs::cpu.inst     0.843736                       # Average percentage of cache occupancy ((Ratio/Tick))
system.cpu.icache.tags.avgOccs::total        0.843736                       # Average percentage of cache occupancy ((Ratio/Tick))
system.cpu.icache.tags.occupanciesTaskId::1024          223                       # Occupied blocks per task id (Count)
system.cpu.icache.tags.ageTaskId_1024::0           34                       # Occupied blocks per task id, per block age (Count)
system.cpu.icache.tags.ageTaskId_1024::1            9                       # Occupied blocks per task id, per block age (Count)
system.cpu.icache.tags.ageTaskId_1024::4          180                       # Occupied blocks per task id, per block age (Count)
system.cpu.icache.tags.ratioOccsTaskId::1024     0.871094                       # Ratio of occupied blocks and all blocks, per task id (Ratio)
system.cpu.icache.tags.tagAccesses         1077129341                       # Number of tag accesses (Count)
system.cpu.icache.tags.dataAccesses        1077129341                       # Number of data accesses (Count)
system.cpu.icache.tags.power_state.pwrStateResidencyTicks::UNDEFINED 2416534772000                       # Cumulative time (in ticks) in various power states (Tick)
system.cpu.interrupts.clk_domain.clock          16000                       # Clock period in ticks (Tick)
system.cpu.mmu.dtb.rdAccesses               288548366                       # TLB accesses on read requests (Count)
system.cpu.mmu.dtb.wrAccesses                88562997                       # TLB accesses on write requests (Count)
system.cpu.mmu.dtb.rdMisses                       464                       # TLB misses on read requests (Count)
system.cpu.mmu.dtb.wrMisses                    774187                       # TLB misses on write requests (Count)
system.cpu.mmu.dtb.walker.power_state.pwrStateResidencyTicks::UNDEFINED 2416534772000                       # Cumulative time (in ticks) in various power states (Tick)
system.cpu.mmu.itb.rdAccesses                       0                       # TLB accesses on read requests (Count)
system.cpu.mmu.itb.wrAccesses               538564481                       # TLB accesses on write requests (Count)
system.cpu.mmu.itb.rdMisses                         0                       # TLB misses on read requests (Count)
system.cpu.mmu.itb.wrMisses                        46                       # TLB misses on write requests (Count)
system.cpu.mmu.itb.walker.power_state.pwrStateResidencyTicks::UNDEFINED 2416534772000                       # Cumulative time (in ticks) in various power states (Tick)
system.cpu.power_state.pwrStateResidencyTicks::ON 2416534772000                       # Cumulative time (in ticks) in various power states (Tick)
system.cpu.thread_0.numInsts                        0                       # Number of Instructions committed (Count)
system.cpu.thread_0.numOps                          0                       # Number of Ops committed (Count)
system.cpu.thread_0.numMemRefs                      0                       # Number of Memory References (Count)
system.cpu.workload.numSyscalls                    12                       # Number of system calls (Count)
system.l2bus.transDist::ReadResp                 5449                       # Transaction distribution (Count)
system.l2bus.transDist::WritebackDirty       17084578                       # Transaction distribution (Count)
system.l2bus.transDist::CleanEvict             891664                       # Transaction distribution (Count)
system.l2bus.transDist::UpgradeReq                  8                       # Transaction distribution (Count)
system.l2bus.transDist::UpgradeResp                 8                       # Transaction distribution (Count)
system.l2bus.transDist::ReadExReq             8674403                       # Transaction distribution (Count)
system.l2bus.transDist::ReadExResp            8674403                       # Transaction distribution (Count)
system.l2bus.transDist::ReadSharedReq            5449                       # Transaction distribution (Count)
system.l2bus.pktCount_system.cpu.icache.mem_side_port::system.l2cache.cpu_side_port          914                       # Packet count per connected requestor and responder (Count)
system.l2bus.pktCount_system.cpu.dcache.mem_side_port::system.l2cache.cpu_side_port     26036387                       # Packet count per connected requestor and responder (Count)
system.l2bus.pktCount::total                 26037301                       # Packet count per connected requestor and responder (Count)
system.l2bus.pktSize_system.cpu.icache.mem_side_port::system.l2cache.cpu_side_port        24256                       # Cumulative packet size per connected requestor and responder (Byte)
system.l2bus.pktSize_system.cpu.dcache.mem_side_port::system.l2cache.cpu_side_port   1110826048                       # Cumulative packet size per connected requestor and responder (Byte)
system.l2bus.pktSize::total                1110850304                       # Cumulative packet size per connected requestor and responder (Byte)
system.l2bus.snoops                           9298661                       # Total snoops (Count)
system.l2bus.snoopTraffic                   538073216                       # Total snoop traffic (Byte)
system.l2bus.snoopFanout::samples            17978521                       # Request fanout histogram (Count)
system.l2bus.snoopFanout::mean               0.049166                       # Request fanout histogram (Count)
system.l2bus.snoopFanout::stdev              0.216214                       # Request fanout histogram (Count)
system.l2bus.snoopFanout::underflows                0      0.00%      0.00% # Request fanout histogram (Count)
system.l2bus.snoopFanout::0                  17094597     95.08%     95.08% # Request fanout histogram (Count)
system.l2bus.snoopFanout::1                    883924      4.92%    100.00% # Request fanout histogram (Count)
system.l2bus.snoopFanout::2                         0      0.00%    100.00% # Request fanout histogram (Count)
system.l2bus.snoopFanout::overflows                 0      0.00%    100.00% # Request fanout histogram (Count)
system.l2bus.snoopFanout::min_value                 0                       # Request fanout histogram (Count)
system.l2bus.snoopFanout::max_value                 1                       # Request fanout histogram (Count)
system.l2bus.snoopFanout::total              17978521                       # Request fanout histogram (Count)
system.l2bus.power_state.pwrStateResidencyTicks::UNDEFINED 2416534772000                       # Cumulative time (in ticks) in various power states (Tick)
system.l2bus.reqLayer0.occupancy          34711809000                       # Layer occupancy (ticks) (Tick)
system.l2bus.reqLayer0.utilization                0.0                       # Layer utilization (Ratio)
system.l2bus.respLayer0.occupancy             1137000                       # Layer occupancy (ticks) (Tick)
system.l2bus.respLayer0.utilization               0.0                       # Layer utilization (Ratio)
system.l2bus.respLayer1.occupancy         26038427000                       # Layer occupancy (ticks) (Tick)
system.l2bus.respLayer1.utilization               0.0                       # Layer utilization (Ratio)
system.l2bus.snoop_filter.totRequests        17357441                       # Total number of requests made to the snoop filter. (Count)
system.l2bus.snoop_filter.hitSingleRequests      8677589                       # Number of requests hitting in the snoop filter with a single holder of the requested data. (Count)
system.l2bus.snoop_filter.hitMultiRequests            0                       # Number of requests hitting in the snoop filter with multiple (>1) holders of the requested data. (Count)
system.l2bus.snoop_filter.totSnoops            883924                       # Total number of snoops made to the snoop filter. (Count)
system.l2bus.snoop_filter.hitSingleSnoops       883924                       # Number of snoops hitting in the snoop filter with a single holder of the requested data. (Count)
system.l2bus.snoop_filter.hitMultiSnoops            0                       # Number of snoops hitting in the snoop filter with multiple (>1) holders of the requested data. (Count)
system.l2cache.demandHits::cpu.inst                10                       # number of demand (read+write) hits (Count)
system.l2cache.demandHits::cpu.data            255598                       # number of demand (read+write) hits (Count)
system.l2cache.demandHits::total               255608                       # number of demand (read+write) hits (Count)
system.l2cache.overallHits::cpu.inst               10                       # number of overall hits (Count)
system.l2cache.overallHits::cpu.data           255598                       # number of overall hits (Count)
system.l2cache.overallHits::total              255608                       # number of overall hits (Count)
system.l2cache.demandMisses::cpu.inst             369                       # number of demand (read+write) misses (Count)
system.l2cache.demandMisses::cpu.data         8423875                       # number of demand (read+write) misses (Count)
system.l2cache.demandMisses::total            8424244                       # number of demand (read+write) misses (Count)
system.l2cache.overallMisses::cpu.inst            369                       # number of overall misses (Count)
system.l2cache.overallMisses::cpu.data        8423875                       # number of overall misses (Count)
system.l2cache.overallMisses::total           8424244                       # number of overall misses (Count)
system.l2cache.demandMissLatency::cpu.inst     59300000                       # number of demand (read+write) miss ticks (Tick)
system.l2cache.demandMissLatency::cpu.data 553565301000                       # number of demand (read+write) miss ticks (Tick)
system.l2cache.demandMissLatency::total  553624601000                       # number of demand (read+write) miss ticks (Tick)
system.l2cache.overallMissLatency::cpu.inst     59300000                       # number of overall miss ticks (Tick)
system.l2cache.overallMissLatency::cpu.data 553565301000                       # number of overall miss ticks (Tick)
system.l2cache.overallMissLatency::total 553624601000                       # number of overall miss ticks (Tick)
system.l2cache.demandAccesses::cpu.inst           379                       # number of demand (read+write) accesses (Count)
system.l2cache.demandAccesses::cpu.data       8679473                       # number of demand (read+write) accesses (Count)
system.l2cache.demandAccesses::total          8679852                       # number of demand (read+write) accesses (Count)
system.l2cache.overallAccesses::cpu.inst          379                       # number of overall (read+write) accesses (Count)
system.l2cache.overallAccesses::cpu.data      8679473                       # number of overall (read+write) accesses (Count)
system.l2cache.overallAccesses::total         8679852                       # number of overall (read+write) accesses (Count)
system.l2cache.demandMissRate::cpu.inst      0.973615                       # miss rate for demand accesses (Ratio)
system.l2cache.demandMissRate::cpu.data      0.970551                       # miss rate for demand accesses (Ratio)
system.l2cache.demandMissRate::total         0.970552                       # miss rate for demand accesses (Ratio)
system.l2cache.overallMissRate::cpu.inst     0.973615                       # miss rate for overall accesses (Ratio)
system.l2cache.overallMissRate::cpu.data     0.970551                       # miss rate for overall accesses (Ratio)
system.l2cache.overallMissRate::total        0.970552                       # miss rate for overall accesses (Ratio)
system.l2cache.demandAvgMissLatency::cpu.inst 160704.607046                       # average overall miss latency in ticks ((Tick/Count))
system.l2cache.demandAvgMissLatency::cpu.data 65713.855085                       # average overall miss latency in ticks ((Tick/Count))
system.l2cache.demandAvgMissLatency::total 65718.015884                       # average overall miss latency in ticks ((Tick/Count))
system.l2cache.overallAvgMissLatency::cpu.inst 160704.607046                       # average overall miss latency ((Tick/Count))
system.l2cache.overallAvgMissLatency::cpu.data 65713.855085                       # average overall miss latency ((Tick/Count))
system.l2cache.overallAvgMissLatency::total 65718.015884                       # average overall miss latency ((Tick/Count))
system.l2cache.blockedCycles::no_mshrs              0                       # number of cycles access was blocked (Cycle)
system.l2cache.blockedCycles::no_targets            0                       # number of cycles access was blocked (Cycle)
system.l2cache.blockedCauses::no_mshrs              0                       # number of times access was blocked (Count)
system.l2cache.blockedCauses::no_targets            0                       # number of times access was blocked (Count)
system.l2cache.avgBlocked::no_mshrs               nan                       # average number of cycles each access was blocked ((Cycle/Count))
system.l2cache.avgBlocked::no_targets             nan                       # average number of cycles each access was blocked ((Cycle/Count))
system.l2cache.writebacks::writebacks         8407394                       # number of writebacks (Count)
system.l2cache.writebacks::total              8407394                       # number of writebacks (Count)
system.l2cache.demandMshrMisses::cpu.inst          369                       # number of demand (read+write) MSHR misses (Count)
system.l2cache.demandMshrMisses::cpu.data      8423875                       # number of demand (read+write) MSHR misses (Count)
system.l2cache.demandMshrMisses::total        8424244                       # number of demand (read+write) MSHR misses (Count)
system.l2cache.overallMshrMisses::cpu.inst          369                       # number of overall MSHR misses (Count)
system.l2cache.overallMshrMisses::cpu.data      8423875                       # number of overall MSHR misses (Count)
system.l2cache.overallMshrMisses::total       8424244                       # number of overall MSHR misses (Count)
system.l2cache.demandMshrMissLatency::cpu.inst     51920000                       # number of demand (read+write) MSHR miss ticks (Tick)
system.l2cache.demandMshrMissLatency::cpu.data 385087801000                       # number of demand (read+write) MSHR miss ticks (Tick)
system.l2cache.demandMshrMissLatency::total 385139721000                       # number of demand (read+write) MSHR miss ticks (Tick)
system.l2cache.overallMshrMissLatency::cpu.inst     51920000                       # number of overall MSHR miss ticks (Tick)
system.l2cache.overallMshrMissLatency::cpu.data 385087801000                       # number of overall MSHR miss ticks (Tick)
system.l2cache.overallMshrMissLatency::total 385139721000                       # number of overall MSHR miss ticks (Tick)
system.l2cache.demandMshrMissRate::cpu.inst     0.973615                       # mshr miss ratio for demand accesses (Ratio)
system.l2cache.demandMshrMissRate::cpu.data     0.970551                       # mshr miss ratio for demand accesses (Ratio)
system.l2cache.demandMshrMissRate::total     0.970552                       # mshr miss ratio for demand accesses (Ratio)
system.l2cache.overallMshrMissRate::cpu.inst     0.973615                       # mshr miss ratio for overall accesses (Ratio)
system.l2cache.overallMshrMissRate::cpu.data     0.970551                       # mshr miss ratio for overall accesses (Ratio)
system.l2cache.overallMshrMissRate::total     0.970552                       # mshr miss ratio for overall accesses (Ratio)
system.l2cache.demandAvgMshrMissLatency::cpu.inst 140704.607046                       # average overall mshr miss latency ((Tick/Count))
system.l2cache.demandAvgMshrMissLatency::cpu.data 45713.855085                       # average overall mshr miss latency ((Tick/Count))
system.l2cache.demandAvgMshrMissLatency::total 45718.015884                       # average overall mshr miss latency ((Tick/Count))
system.l2cache.overallAvgMshrMissLatency::cpu.inst 140704.607046                       # average overall mshr miss latency ((Tick/Count))
system.l2cache.overallAvgMshrMissLatency::cpu.data 45713.855085                       # average overall mshr miss latency ((Tick/Count))
system.l2cache.overallAvgMshrMissLatency::total 45718.015884                       # average overall mshr miss latency ((Tick/Count))
system.l2cache.replacements                   9291162                       # number of replacements (Count)
system.l2cache.CleanEvict.mshrMisses::writebacks           71                       # number of CleanEvict MSHR misses (Count)
system.l2cache.CleanEvict.mshrMisses::total           71                       # number of CleanEvict MSHR misses (Count)
system.l2cache.CleanEvict.mshrMissRate::writebacks          inf                       # mshr miss rate for CleanEvict accesses (Ratio)
system.l2cache.CleanEvict.mshrMissRate::total          inf                       # mshr miss rate for CleanEvict accesses (Ratio)
system.l2cache.ReadExReq.hits::cpu.data        250814                       # number of ReadExReq hits (Count)
system.l2cache.ReadExReq.hits::total           250814                       # number of ReadExReq hits (Count)
system.l2cache.ReadExReq.misses::cpu.data      8423589                       # number of ReadExReq misses (Count)
system.l2cache.ReadExReq.misses::total        8423589                       # number of ReadExReq misses (Count)
system.l2cache.ReadExReq.missLatency::cpu.data 553539155000                       # number of ReadExReq miss ticks (Tick)
system.l2cache.ReadExReq.missLatency::total 553539155000                       # number of ReadExReq miss ticks (Tick)
system.l2cache.ReadExReq.accesses::cpu.data      8674403                       # number of ReadExReq accesses(hits+misses) (Count)
system.l2cache.ReadExReq.accesses::total      8674403                       # number of ReadExReq accesses(hits+misses) (Count)
system.l2cache.ReadExReq.missRate::cpu.data     0.971086                       # miss rate for ReadExReq accesses (Ratio)
system.l2cache.ReadExReq.missRate::total     0.971086                       # miss rate for ReadExReq accesses (Ratio)
system.l2cache.ReadExReq.avgMissLatency::cpu.data 65712.982317                       # average ReadExReq miss latency ((Tick/Count))
system.l2cache.ReadExReq.avgMissLatency::total 65712.982317                       # average ReadExReq miss latency ((Tick/Count))
system.l2cache.ReadExReq.mshrMisses::cpu.data      8423589                       # number of ReadExReq MSHR misses (Count)
system.l2cache.ReadExReq.mshrMisses::total      8423589                       # number of ReadExReq MSHR misses (Count)
system.l2cache.ReadExReq.mshrMissLatency::cpu.data 385067375000                       # number of ReadExReq MSHR miss ticks (Tick)
system.l2cache.ReadExReq.mshrMissLatency::total 385067375000                       # number of ReadExReq MSHR miss ticks (Tick)
system.l2cache.ReadExReq.mshrMissRate::cpu.data     0.971086                       # mshr miss rate for ReadExReq accesses (Ratio)
system.l2cache.ReadExReq.mshrMissRate::total     0.971086                       # mshr miss rate for ReadExReq accesses (Ratio)
system.l2cache.ReadExReq.avgMshrMissLatency::cpu.data 45712.982317                       # average ReadExReq mshr miss latency ((Tick/Count))
system.l2cache.ReadExReq.avgMshrMissLatency::total 45712.982317                       # average ReadExReq mshr miss latency ((Tick/Count))
system.l2cache.ReadSharedReq.hits::cpu.inst           10                       # number of ReadSharedReq hits (Count)
system.l2cache.ReadSharedReq.hits::cpu.data         4784                       # number of ReadSharedReq hits (Count)
system.l2cache.ReadSharedReq.hits::total         4794                       # number of ReadSharedReq hits (Count)
system.l2cache.ReadSharedReq.misses::cpu.inst          369                       # number of ReadSharedReq misses (Count)
system.l2cache.ReadSharedReq.misses::cpu.data          286                       # number of ReadSharedReq misses (Count)
system.l2cache.ReadSharedReq.misses::total          655                       # number of ReadSharedReq misses (Count)
system.l2cache.ReadSharedReq.missLatency::cpu.inst     59300000                       # number of ReadSharedReq miss ticks (Tick)
system.l2cache.ReadSharedReq.missLatency::cpu.data     26146000                       # number of ReadSharedReq miss ticks (Tick)
system.l2cache.ReadSharedReq.missLatency::total     85446000                       # number of ReadSharedReq miss ticks (Tick)
system.l2cache.ReadSharedReq.accesses::cpu.inst          379                       # number of ReadSharedReq accesses(hits+misses) (Count)
system.l2cache.ReadSharedReq.accesses::cpu.data         5070                       # number of ReadSharedReq accesses(hits+misses) (Count)
system.l2cache.ReadSharedReq.accesses::total         5449                       # number of ReadSharedReq accesses(hits+misses) (Count)
system.l2cache.ReadSharedReq.missRate::cpu.inst     0.973615                       # miss rate for ReadSharedReq accesses (Ratio)
system.l2cache.ReadSharedReq.missRate::cpu.data     0.056410                       # miss rate for ReadSharedReq accesses (Ratio)
system.l2cache.ReadSharedReq.missRate::total     0.120206                       # miss rate for ReadSharedReq accesses (Ratio)
system.l2cache.ReadSharedReq.avgMissLatency::cpu.inst 160704.607046                       # average ReadSharedReq miss latency ((Tick/Count))
system.l2cache.ReadSharedReq.avgMissLatency::cpu.data 91419.580420                       # average ReadSharedReq miss latency ((Tick/Count))
system.l2cache.ReadSharedReq.avgMissLatency::total 130451.908397                       # average ReadSharedReq miss latency ((Tick/Count))
system.l2cache.ReadSharedReq.mshrMisses::cpu.inst          369                       # number of ReadSharedReq MSHR misses (Count)
system.l2cache.ReadSharedReq.mshrMisses::cpu.data          286                       # number of ReadSharedReq MSHR misses (Count)
system.l2cache.ReadSharedReq.mshrMisses::total          655                       # number of ReadSharedReq MSHR misses (Count)
system.l2cache.ReadSharedReq.mshrMissLatency::cpu.inst     51920000                       # number of ReadSharedReq MSHR miss ticks (Tick)
system.l2cache.ReadSharedReq.mshrMissLatency::cpu.data     20426000                       # number of ReadSharedReq MSHR miss ticks (Tick)
system.l2cache.ReadSharedReq.mshrMissLatency::total     72346000                       # number of ReadSharedReq MSHR miss ticks (Tick)
system.l2cache.ReadSharedReq.mshrMissRate::cpu.inst     0.973615                       # mshr miss rate for ReadSharedReq accesses (Ratio)
system.l2cache.ReadSharedReq.mshrMissRate::cpu.data     0.056410                       # mshr miss rate for ReadSharedReq accesses (Ratio)
system.l2cache.ReadSharedReq.mshrMissRate::total     0.120206                       # mshr miss rate for ReadSharedReq accesses (Ratio)
system.l2cache.ReadSharedReq.avgMshrMissLatency::cpu.inst 140704.607046                       # average ReadSharedReq mshr miss latency ((Tick/Count))
system.l2cache.ReadSharedReq.avgMshrMissLatency::cpu.data 71419.580420                       # average ReadSharedReq mshr miss latency ((Tick/Count))
system.l2cache.ReadSharedReq.avgMshrMissLatency::total 110451.908397                       # average ReadSharedReq mshr miss latency ((Tick/Count))
system.l2cache.UpgradeReq.hits::cpu.data            8                       # number of UpgradeReq hits (Count)
system.l2cache.UpgradeReq.hits::total               8                       # number of UpgradeReq hits (Count)
system.l2cache.UpgradeReq.accesses::cpu.data            8                       # number of UpgradeReq accesses(hits+misses) (Count)
system.l2cache.UpgradeReq.accesses::total            8                       # number of UpgradeReq accesses(hits+misses) (Count)
system.l2cache.WritebackDirty.hits::writebacks      8677184                       # number of WritebackDirty hits (Count)
system.l2cache.WritebackDirty.hits::total      8677184                       # number of WritebackDirty hits (Count)
system.l2cache.WritebackDirty.accesses::writebacks      8677184                       # number of WritebackDirty accesses(hits+misses) (Count)
system.l2cache.WritebackDirty.accesses::total      8677184                       # number of WritebackDirty accesses(hits+misses) (Count)
system.l2cache.power_state.pwrStateResidencyTicks::UNDEFINED 2416534772000                       # Cumulative time (in ticks) in various power states (Tick)
system.l2cache.tags.tagsInUse            16088.796800                       # Average ticks per tags in use ((Tick/Count))
system.l2cache.tags.totalRefs                17357370                       # Total number of references to valid blocks. (Count)
system.l2cache.tags.sampledRefs               9307546                       # Sample count of references to valid blocks. (Count)
system.l2cache.tags.avgRefs                  1.864871                       # Average number of references to valid blocks. ((Count/Count))
system.l2cache.tags.warmupTick                 148000                       # The tick when the warmup percentage was hit. (Tick)
system.l2cache.tags.occupancies::writebacks  1372.400315                       # Average occupied blocks per tick, per requestor ((Count/Tick))
system.l2cache.tags.occupancies::cpu.inst     5.947310                       # Average occupied blocks per tick, per requestor ((Count/Tick))
system.l2cache.tags.occupancies::cpu.data 14710.449174                       # Average occupied blocks per tick, per requestor ((Count/Tick))
system.l2cache.tags.avgOccs::writebacks      0.083765                       # Average percentage of cache occupancy ((Ratio/Tick))
system.l2cache.tags.avgOccs::cpu.inst        0.000363                       # Average percentage of cache occupancy ((Ratio/Tick))
system.l2cache.tags.avgOccs::cpu.data        0.897855                       # Average percentage of cache occupancy ((Ratio/Tick))
system.l2cache.tags.avgOccs::total           0.981982                       # Average percentage of cache occupancy ((Ratio/Tick))
system.l2cache.tags.occupanciesTaskId::1024        16384                       # Occupied blocks per task id (Count)
system.l2cache.tags.ageTaskId_1024::0              51                       # Occupied blocks per task id, per block age (Count)
system.l2cache.tags.ageTaskId_1024::1             399                       # Occupied blocks per task id, per block age (Count)
system.l2cache.tags.ageTaskId_1024::2            4271                       # Occupied blocks per task id, per block age (Count)
system.l2cache.tags.ageTaskId_1024::3           11452                       # Occupied blocks per task id, per block age (Count)
system.l2cache.tags.ageTaskId_1024::4             211                       # Occupied blocks per task id, per block age (Count)
system.l2cache.tags.ratioOccsTaskId::1024            1                       # Ratio of occupied blocks and all blocks, per task id (Ratio)
system.l2cache.tags.tagAccesses             148167074                       # Number of tag accesses (Count)
system.l2cache.tags.dataAccesses            148167074                       # Number of data accesses (Count)
system.l2cache.tags.power_state.pwrStateResidencyTicks::UNDEFINED 2416534772000                       # Cumulative time (in ticks) in various power states (Tick)
system.l3bus.transDist::ReadResp                  655                       # Transaction distribution (Count)
system.l3bus.transDist::WritebackDirty        8470481                       # Transaction distribution (Count)
system.l3bus.transDist::CleanEvict               7800                       # Transaction distribution (Count)
system.l3bus.transDist::ReadExReq             8423589                       # Transaction distribution (Count)
system.l3bus.transDist::ReadExResp            8423589                       # Transaction distribution (Count)
system.l3bus.transDist::ReadSharedReq             655                       # Transaction distribution (Count)
system.l3bus.pktCount_system.l2cache.mem_side_port::system.l3cache.cpu_side_port     25256102                       # Packet count per connected requestor and responder (Count)
system.l3bus.pktSize_system.l2cache.mem_side_port::system.l3cache.cpu_side_port   1077224832                       # Cumulative packet size per connected requestor and responder (Byte)
system.l3bus.snoops                             70667                       # Total snoops (Count)
system.l3bus.snoopTraffic                     4037568                       # Total snoop traffic (Byte)
system.l3bus.snoopFanout::samples             8494911                       # Request fanout histogram (Count)
system.l3bus.snoopFanout::mean               0.000883                       # Request fanout histogram (Count)
system.l3bus.snoopFanout::stdev              0.029698                       # Request fanout histogram (Count)
system.l3bus.snoopFanout::underflows                0      0.00%      0.00% # Request fanout histogram (Count)
system.l3bus.snoopFanout::0                   8487412     99.91%     99.91% # Request fanout histogram (Count)
system.l3bus.snoopFanout::1                      7499      0.09%    100.00% # Request fanout histogram (Count)
system.l3bus.snoopFanout::overflows                 0      0.00%    100.00% # Request fanout histogram (Count)
system.l3bus.snoopFanout::min_value                 0                       # Request fanout histogram (Count)
system.l3bus.snoopFanout::max_value                 1                       # Request fanout histogram (Count)
system.l3bus.snoopFanout::total               8494911                       # Request fanout histogram (Count)
system.l3bus.power_state.pwrStateResidencyTicks::UNDEFINED 2416534772000                       # Cumulative time (in ticks) in various power states (Tick)
system.l3bus.reqLayer0.occupancy          33646646000                       # Layer occupancy (ticks) (Tick)
system.l3bus.reqLayer0.utilization                0.0                       # Layer utilization (Ratio)
system.l3bus.respLayer0.occupancy         25272732000                       # Layer occupancy (ticks) (Tick)
system.l3bus.respLayer0.utilization               0.0                       # Layer utilization (Ratio)
system.l3bus.snoop_filter.totRequests        16831858                       # Total number of requests made to the snoop filter. (Count)
system.l3bus.snoop_filter.hitSingleRequests      8407614                       # Number of requests hitting in the snoop filter with a single holder of the requested data. (Count)
system.l3bus.snoop_filter.hitMultiRequests            0                       # Number of requests hitting in the snoop filter with multiple (>1) holders of the requested data. (Count)
system.l3bus.snoop_filter.totSnoops              7499                       # Total number of snoops made to the snoop filter. (Count)
system.l3bus.snoop_filter.hitSingleSnoops         7499                       # Number of snoops hitting in the snoop filter with a single holder of the requested data. (Count)
system.l3bus.snoop_filter.hitMultiSnoops            0                       # Number of snoops hitting in the snoop filter with multiple (>1) holders of the requested data. (Count)
system.l3cache.demandHits::cpu.data           8204469                       # number of demand (read+write) hits (Count)
system.l3cache.demandHits::total              8204469                       # number of demand (read+write) hits (Count)
system.l3cache.overallHits::cpu.data          8204469                       # number of overall hits (Count)
system.l3cache.overallHits::total             8204469                       # number of overall hits (Count)
system.l3cache.demandMisses::cpu.inst             369                       # number of demand (read+write) misses (Count)
system.l3cache.demandMisses::cpu.data          219406                       # number of demand (read+write) misses (Count)
system.l3cache.demandMisses::total             219775                       # number of demand (read+write) misses (Count)
system.l3cache.overallMisses::cpu.inst            369                       # number of overall misses (Count)
system.l3cache.overallMisses::cpu.data         219406                       # number of overall misses (Count)
system.l3cache.overallMisses::total            219775                       # number of overall misses (Count)
system.l3cache.demandMissLatency::cpu.inst     43802000                       # number of demand (read+write) miss ticks (Tick)
system.l3cache.demandMissLatency::cpu.data  27468702000                       # number of demand (read+write) miss ticks (Tick)
system.l3cache.demandMissLatency::total   27512504000                       # number of demand (read+write) miss ticks (Tick)
system.l3cache.overallMissLatency::cpu.inst     43802000                       # number of overall miss ticks (Tick)
system.l3cache.overallMissLatency::cpu.data  27468702000                       # number of overall miss ticks (Tick)
system.l3cache.overallMissLatency::total  27512504000                       # number of overall miss ticks (Tick)
system.l3cache.demandAccesses::cpu.inst           369                       # number of demand (read+write) accesses (Count)
system.l3cache.demandAccesses::cpu.data       8423875                       # number of demand (read+write) accesses (Count)
system.l3cache.demandAccesses::total          8424244                       # number of demand (read+write) accesses (Count)
system.l3cache.overallAccesses::cpu.inst          369                       # number of overall (read+write) accesses (Count)
system.l3cache.overallAccesses::cpu.data      8423875                       # number of overall (read+write) accesses (Count)
system.l3cache.overallAccesses::total         8424244                       # number of overall (read+write) accesses (Count)
system.l3cache.demandMissRate::cpu.inst             1                       # miss rate for demand accesses (Ratio)
system.l3cache.demandMissRate::cpu.data      0.026046                       # miss rate for demand accesses (Ratio)
system.l3cache.demandMissRate::total         0.026088                       # miss rate for demand accesses (Ratio)
system.l3cache.overallMissRate::cpu.inst            1                       # miss rate for overall accesses (Ratio)
system.l3cache.overallMissRate::cpu.data     0.026046                       # miss rate for overall accesses (Ratio)
system.l3cache.overallMissRate::total        0.026088                       # miss rate for overall accesses (Ratio)
system.l3cache.demandAvgMissLatency::cpu.inst 118704.607046                       # average overall miss latency in ticks ((Tick/Count))
system.l3cache.demandAvgMissLatency::cpu.data 125195.764929                       # average overall miss latency in ticks ((Tick/Count))
system.l3cache.demandAvgMissLatency::total 125184.866341                       # average overall miss latency in ticks ((Tick/Count))
system.l3cache.overallAvgMissLatency::cpu.inst 118704.607046                       # average overall miss latency ((Tick/Count))
system.l3cache.overallAvgMissLatency::cpu.data 125195.764929                       # average overall miss latency ((Tick/Count))
system.l3cache.overallAvgMissLatency::total 125184.866341                       # average overall miss latency ((Tick/Count))
system.l3cache.blockedCycles::no_mshrs              0                       # number of cycles access was blocked (Cycle)
system.l3cache.blockedCycles::no_targets            0                       # number of cycles access was blocked (Cycle)
system.l3cache.blockedCauses::no_mshrs              0                       # number of times access was blocked (Count)
system.l3cache.blockedCauses::no_targets            0                       # number of times access was blocked (Count)
system.l3cache.avgBlocked::no_mshrs               nan                       # average number of cycles each access was blocked ((Cycle/Count))
system.l3cache.avgBlocked::no_targets             nan                       # average number of cycles each access was blocked ((Cycle/Count))
system.l3cache.writebacks::writebacks           63087                       # number of writebacks (Count)
system.l3cache.writebacks::total                63087                       # number of writebacks (Count)
system.l3cache.demandMshrMisses::cpu.inst          369                       # number of demand (read+write) MSHR misses (Count)
system.l3cache.demandMshrMisses::cpu.data       219406                       # number of demand (read+write) MSHR misses (Count)
system.l3cache.demandMshrMisses::total         219775                       # number of demand (read+write) MSHR misses (Count)
system.l3cache.overallMshrMisses::cpu.inst          369                       # number of overall MSHR misses (Count)
system.l3cache.overallMshrMisses::cpu.data       219406                       # number of overall MSHR misses (Count)
system.l3cache.overallMshrMisses::total        219775                       # number of overall MSHR misses (Count)
system.l3cache.demandMshrMissLatency::cpu.inst     29042000                       # number of demand (read+write) MSHR miss ticks (Tick)
system.l3cache.demandMshrMissLatency::cpu.data  18692462000                       # number of demand (read+write) MSHR miss ticks (Tick)
system.l3cache.demandMshrMissLatency::total  18721504000                       # number of demand (read+write) MSHR miss ticks (Tick)
system.l3cache.overallMshrMissLatency::cpu.inst     29042000                       # number of overall MSHR miss ticks (Tick)
system.l3cache.overallMshrMissLatency::cpu.data  18692462000                       # number of overall MSHR miss ticks (Tick)
system.l3cache.overallMshrMissLatency::total  18721504000                       # number of overall MSHR miss ticks (Tick)
system.l3cache.demandMshrMissRate::cpu.inst            1                       # mshr miss ratio for demand accesses (Ratio)
system.l3cache.demandMshrMissRate::cpu.data     0.026046                       # mshr miss ratio for demand accesses (Ratio)
system.l3cache.demandMshrMissRate::total     0.026088                       # mshr miss ratio for demand accesses (Ratio)
system.l3cache.overallMshrMissRate::cpu.inst            1                       # mshr miss ratio for overall accesses (Ratio)
system.l3cache.overallMshrMissRate::cpu.data     0.026046                       # mshr miss ratio for overall accesses (Ratio)
system.l3cache.overallMshrMissRate::total     0.026088                       # mshr miss ratio for overall accesses (Ratio)
system.l3cache.demandAvgMshrMissLatency::cpu.inst 78704.607046                       # average overall mshr miss latency ((Tick/Count))
system.l3cache.demandAvgMshrMissLatency::cpu.data 85195.764929                       # average overall mshr miss latency ((Tick/Count))
system.l3cache.demandAvgMshrMissLatency::total 85184.866341                       # average overall mshr miss latency ((Tick/Count))
system.l3cache.overallAvgMshrMissLatency::cpu.inst 78704.607046                       # average overall mshr miss latency ((Tick/Count))
system.l3cache.overallAvgMshrMissLatency::cpu.data 85195.764929                       # average overall mshr miss latency ((Tick/Count))
[...]
system.mem_ctrl.dram.bytesWritten::total      4037568                       # Number of bytes written to this memory (Byte)
system.mem_ctrl.dram.numReads::cpu.inst           369                       # Number of read requests responded to by this memory (Count)
system.mem_ctrl.dram.numReads::cpu.data        219406                       # Number of read requests responded to by this memory (Count)
system.mem_ctrl.dram.numReads::total           219775                       # Number of read requests responded to by this memory (Count)
system.mem_ctrl.dram.numWrites::writebacks        63087                       # Number of write requests responded to by this memory (Count)
system.mem_ctrl.dram.numWrites::total           63087                       # Number of write requests responded to by this memory (Count)
system.mem_ctrl.dram.bwRead::cpu.inst            9773                       # Total read bandwidth from this memory ((Byte/Second))
system.mem_ctrl.dram.bwRead::cpu.data         5810793                       # Total read bandwidth from this memory ((Byte/Second))
system.mem_ctrl.dram.bwRead::total            5820566                       # Total read bandwidth from this memory ((Byte/Second))
system.mem_ctrl.dram.bwInstRead::cpu.inst         9773                       # Instruction read bandwidth from this memory ((Byte/Second))
system.mem_ctrl.dram.bwInstRead::total           9773                       # Instruction read bandwidth from this memory ((Byte/Second))
system.mem_ctrl.dram.bwWrite::writebacks      1670809                       # Write bandwidth from this memory ((Byte/Second))
system.mem_ctrl.dram.bwWrite::total           1670809                       # Write bandwidth from this memory ((Byte/Second))
system.mem_ctrl.dram.bwTotal::writebacks      1670809                       # Total bandwidth to/from this memory ((Byte/Second))
system.mem_ctrl.dram.bwTotal::cpu.inst           9773                       # Total bandwidth to/from this memory ((Byte/Second))
system.mem_ctrl.dram.bwTotal::cpu.data        5810793                       # Total bandwidth to/from this memory ((Byte/Second))
system.mem_ctrl.dram.bwTotal::total           7491375                       # Total bandwidth to/from this memory ((Byte/Second))
system.mem_ctrl.dram.readBursts                219702                       # Number of DRAM read bursts (Count)
system.mem_ctrl.dram.writeBursts                63057                       # Number of DRAM write bursts (Count)
system.mem_ctrl.dram.perBankRdBursts::0         13709                       # Per bank write bursts (Count)
system.mem_ctrl.dram.perBankRdBursts::1         13955                       # Per bank write bursts (Count)
system.mem_ctrl.dram.perBankRdBursts::2         13848                       # Per bank write bursts (Count)
system.mem_ctrl.dram.perBankRdBursts::3         14048                       # Per bank write bursts (Count)
system.mem_ctrl.dram.perBankRdBursts::4         14092                       # Per bank write bursts (Count)
system.mem_ctrl.dram.perBankRdBursts::5         13904                       # Per bank write bursts (Count)
system.mem_ctrl.dram.perBankRdBursts::6         13579                       # Per bank write bursts (Count)
system.mem_ctrl.dram.perBankRdBursts::7         13663                       # Per bank write bursts (Count)
system.mem_ctrl.dram.perBankRdBursts::8         13708                       # Per bank write bursts (Count)
system.mem_ctrl.dram.perBankRdBursts::9         13511                       # Per bank write bursts (Count)
system.mem_ctrl.dram.perBankRdBursts::10        13593                       # Per bank write bursts (Count)
system.mem_ctrl.dram.perBankRdBursts::11        13654                       # Per bank write bursts (Count)
system.mem_ctrl.dram.perBankRdBursts::12        13637                       # Per bank write bursts (Count)
system.mem_ctrl.dram.perBankRdBursts::13        13642                       # Per bank write bursts (Count)
system.mem_ctrl.dram.perBankRdBursts::14        13640                       # Per bank write bursts (Count)
system.mem_ctrl.dram.perBankRdBursts::15        13519                       # Per bank write bursts (Count)
system.mem_ctrl.dram.perBankWrBursts::0          3939                       # Per bank write bursts (Count)
system.mem_ctrl.dram.perBankWrBursts::1          4065                       # Per bank write bursts (Count)
system.mem_ctrl.dram.perBankWrBursts::2          3988                       # Per bank write bursts (Count)
system.mem_ctrl.dram.perBankWrBursts::3          4184                       # Per bank write bursts (Count)
system.mem_ctrl.dram.perBankWrBursts::4          4160                       # Per bank write bursts (Count)
system.mem_ctrl.dram.perBankWrBursts::5          4061                       # Per bank write bursts (Count)
system.mem_ctrl.dram.perBankWrBursts::6          3846                       # Per bank write bursts (Count)
system.mem_ctrl.dram.perBankWrBursts::7          3924                       # Per bank write bursts (Count)
system.mem_ctrl.dram.perBankWrBursts::8          3938                       # Per bank write bursts (Count)
system.mem_ctrl.dram.perBankWrBursts::9          3759                       # Per bank write bursts (Count)
system.mem_ctrl.dram.perBankWrBursts::10         3829                       # Per bank write bursts (Count)
system.mem_ctrl.dram.perBankWrBursts::11         3907                       # Per bank write bursts (Count)
system.mem_ctrl.dram.perBankWrBursts::12         3902                       # Per bank write bursts (Count)
system.mem_ctrl.dram.perBankWrBursts::13         3877                       # Per bank write bursts (Count)
system.mem_ctrl.dram.perBankWrBursts::14         3892                       # Per bank write bursts (Count)
system.mem_ctrl.dram.perBankWrBursts::15         3786                       # Per bank write bursts (Count)
system.mem_ctrl.dram.totQLat               3312283000                       # Total ticks spent queuing (Tick)
system.mem_ctrl.dram.totBusLat             1098510000                       # Total ticks spent in databus transfers (Tick)
system.mem_ctrl.dram.totMemAccLat          7431695500                       # Total ticks spent from burst creation until serviced by the DRAM (Tick)
system.mem_ctrl.dram.avgQLat                 15076.25                       # Average queueing delay per DRAM burst ((Tick/Count))
system.mem_ctrl.dram.avgBusLat                5000.00                       # Average bus latency per DRAM burst ((Tick/Count))
system.mem_ctrl.dram.avgMemAccLat            33826.25                       # Average memory access latency per DRAM burst ((Tick/Count))
system.mem_ctrl.dram.readRowHits               110851                       # Number of row buffer hits during reads (Count)
system.mem_ctrl.dram.writeRowHits               34025                       # Number of row buffer hits during writes (Count)
system.mem_ctrl.dram.readRowHitRate             50.46                       # Row buffer hit rate for reads (Ratio)
system.mem_ctrl.dram.writeRowHitRate            53.96                       # Row buffer hit rate for writes (Ratio)
system.mem_ctrl.dram.bytesPerActivate::samples       137881                       # Bytes accessed per row activation (Byte)
system.mem_ctrl.dram.bytesPerActivate::mean   131.243609                       # Bytes accessed per row activation (Byte)
system.mem_ctrl.dram.bytesPerActivate::gmean   116.896941                       # Bytes accessed per row activation (Byte)
system.mem_ctrl.dram.bytesPerActivate::stdev    66.598112                       # Bytes accessed per row activation (Byte)
system.mem_ctrl.dram.bytesPerActivate::0-127        46390     33.64%     33.64% # Bytes accessed per row activation (Byte)
system.mem_ctrl.dram.bytesPerActivate::128-255        86251     62.55%     96.20% # Bytes accessed per row activation (Byte)
system.mem_ctrl.dram.bytesPerActivate::256-383         3561      2.58%     98.78% # Bytes accessed per row activation (Byte)
system.mem_ctrl.dram.bytesPerActivate::384-511         1209      0.88%     99.66% # Bytes accessed per row activation (Byte)
system.mem_ctrl.dram.bytesPerActivate::512-639          366      0.27%     99.92% # Bytes accessed per row activation (Byte)
system.mem_ctrl.dram.bytesPerActivate::640-767           88      0.06%     99.99% # Bytes accessed per row activation (Byte)
system.mem_ctrl.dram.bytesPerActivate::768-895            7      0.01%     99.99% # Bytes accessed per row activation (Byte)
system.mem_ctrl.dram.bytesPerActivate::896-1023            5      0.00%    100.00% # Bytes accessed per row activation (Byte)
system.mem_ctrl.dram.bytesPerActivate::1024-1151            4      0.00%    100.00% # Bytes accessed per row activation (Byte)
system.mem_ctrl.dram.bytesPerActivate::total       137881                       # Bytes accessed per row activation (Byte)
system.mem_ctrl.dram.bytesRead               14060928                       # Total bytes read (Byte)
system.mem_ctrl.dram.bytesWritten             4035648                       # Total bytes written (Byte)
system.mem_ctrl.dram.avgRdBW                 5.818633                       # Average DRAM read bandwidth in MiBytes/s ((Byte/Second))
system.mem_ctrl.dram.avgWrBW                 1.670014                       # Average DRAM write bandwidth in MiBytes/s ((Byte/Second))
system.mem_ctrl.dram.peakBW                  12800.00                       # Theoretical peak bandwidth in MiByte/s ((Byte/Second))
system.mem_ctrl.dram.busUtil                     0.06                       # Data bus utilization in percentage (Ratio)
system.mem_ctrl.dram.busUtilRead                 0.05                       # Data bus utilization in percentage for reads (Ratio)
system.mem_ctrl.dram.busUtilWrite                0.01                       # Data bus utilization in percentage for writes (Ratio)
system.mem_ctrl.dram.pageHitRate                51.24                       # Row buffer hit rate, read and write combined (Ratio)
system.mem_ctrl.dram.power_state.pwrStateResidencyTicks::UNDEFINED 2416534772000                       # Cumulative time (in ticks) in various power states (Tick)
system.mem_ctrl.dram.rank0.actEnergy        499771440                       # Energy for activate commands per rank (pJ) (Joule)
system.mem_ctrl.dram.rank0.preEnergy        265631025                       # Energy for precharge commands per rank (pJ) (Joule)
system.mem_ctrl.dram.rank0.readEnergy       791097720                       # Energy for read commands per rank (pJ) (Joule)
system.mem_ctrl.dram.rank0.writeEnergy      167911740                       # Energy for write commands per rank (pJ) (Joule)
system.mem_ctrl.dram.rank0.refreshEnergy 190759055760.000031                       # Energy for refresh commands per rank (pJ) (Joule)
system.mem_ctrl.dram.rank0.actBackEnergy 178328762460                       # Energy for active background per rank (pJ) (Joule)
system.mem_ctrl.dram.rank0.preBackEnergy 777777763200                       # Energy for precharge background per rank (pJ) (Joule)
system.mem_ctrl.dram.rank0.actPowerDownEnergy            0                       # Energy for active power-down per rank (pJ) (Joule)
system.mem_ctrl.dram.rank0.prePowerDownEnergy            0                       # Energy for precharge power-down per rank (pJ) (Joule)
system.mem_ctrl.dram.rank0.selfRefreshEnergy            0                       # Energy for self refresh per rank (pJ) (Joule)
system.mem_ctrl.dram.rank0.totalEnergy   1148589993345                       # Total energy per rank (pJ) (Joule)
system.mem_ctrl.dram.rank0.averagePower    475.304559                       # Core power per rank (mW) (Watt)
system.mem_ctrl.dram.rank0.totalIdleTime            0                       # Total Idle time Per DRAM Rank (Tick)
system.mem_ctrl.dram.rank0.pwrStateTime::IDLE 2020413801000                       # Time in different power states (Tick)
system.mem_ctrl.dram.rank0.pwrStateTime::REF  80693340000                       # Time in different power states (Tick)
system.mem_ctrl.dram.rank0.pwrStateTime::SREF            0                       # Time in different power states (Tick)
system.mem_ctrl.dram.rank0.pwrStateTime::PRE_PDN            0                       # Time in different power states (Tick)
system.mem_ctrl.dram.rank0.pwrStateTime::ACT 315427631000                       # Time in different power states (Tick)
system.mem_ctrl.dram.rank0.pwrStateTime::ACT_PDN            0                       # Time in different power states (Tick)
system.mem_ctrl.dram.rank1.actEnergy        484713180                       # Energy for activate commands per rank (pJ) (Joule)
system.mem_ctrl.dram.rank1.preEnergy        257627370                       # Energy for precharge commands per rank (pJ) (Joule)
system.mem_ctrl.dram.rank1.readEnergy       777574560                       # Energy for read commands per rank (pJ) (Joule)
system.mem_ctrl.dram.rank1.writeEnergy      161245800                       # Energy for write commands per rank (pJ) (Joule)
system.mem_ctrl.dram.rank1.refreshEnergy 190759055760.000031                       # Energy for refresh commands per rank (pJ) (Joule)
system.mem_ctrl.dram.rank1.actBackEnergy 175530932850                       # Energy for active background per rank (pJ) (Joule)
system.mem_ctrl.dram.rank1.preBackEnergy 780133830240                       # Energy for precharge background per rank (pJ) (Joule)
system.mem_ctrl.dram.rank1.actPowerDownEnergy            0                       # Energy for active power-down per rank (pJ) (Joule)
system.mem_ctrl.dram.rank1.prePowerDownEnergy            0                       # Energy for precharge power-down per rank (pJ) (Joule)
system.mem_ctrl.dram.rank1.selfRefreshEnergy            0                       # Energy for self refresh per rank (pJ) (Joule)
system.mem_ctrl.dram.rank1.totalEnergy   1148104979760                       # Total energy per rank (pJ) (Joule)
system.mem_ctrl.dram.rank1.averagePower    475.103852                       # Core power per rank (mW) (Watt)
system.mem_ctrl.dram.rank1.totalIdleTime            0                       # Total Idle time Per DRAM Rank (Tick)
system.mem_ctrl.dram.rank1.pwrStateTime::IDLE 2026565977500                       # Time in different power states (Tick)
system.mem_ctrl.dram.rank1.pwrStateTime::REF  80693340000                       # Time in different power states (Tick)
system.mem_ctrl.dram.rank1.pwrStateTime::SREF            0                       # Time in different power states (Tick)
system.mem_ctrl.dram.rank1.pwrStateTime::PRE_PDN            0                       # Time in different power states (Tick)
system.mem_ctrl.dram.rank1.pwrStateTime::ACT 309275454500                       # Time in different power states (Tick)
system.mem_ctrl.dram.rank1.pwrStateTime::ACT_PDN            0                       # Time in different power states (Tick)
system.mem_ctrl.power_state.pwrStateResidencyTicks::UNDEFINED 2416534772000                       # Cumulative time (in ticks) in various power states (Tick)
system.membus.transDist::ReadResp                 452                       # Transaction distribution (Count)
system.membus.transDist::WritebackDirty         63087                       # Transaction distribution (Count)
system.membus.transDist::CleanEvict               120                       # Transaction distribution (Count)
system.membus.transDist::ReadExReq             219323                       # Transaction distribution (Count)
system.membus.transDist::ReadExResp            219323                       # Transaction distribution (Count)
system.membus.transDist::ReadSharedReq            452                       # Transaction distribution (Count)
system.membus.pktCount_system.l3cache.mem_side_port::system.mem_ctrl.port       502757                       # Packet count per connected requestor and responder (Count)
system.membus.pktCount_system.l3cache.mem_side_port::total       502757                       # Packet count per connected requestor and responder (Count)
system.membus.pktCount::total                  502757                       # Packet count per connected requestor and responder (Count)
system.membus.pktSize_system.l3cache.mem_side_port::system.mem_ctrl.port     18103168                       # Cumulative packet size per connected requestor and responder (Byte)
system.membus.pktSize_system.l3cache.mem_side_port::total     18103168                       # Cumulative packet size per connected requestor and responder (Byte)
system.membus.pktSize::total                 18103168                       # Cumulative packet size per connected requestor and responder (Byte)
system.membus.snoops                                0                       # Total snoops (Count)
system.membus.snoopTraffic                          0                       # Total snoop traffic (Byte)
system.membus.snoopFanout::samples             219775                       # Request fanout histogram (Count)
system.membus.snoopFanout::mean                     0                       # Request fanout histogram (Count)
system.membus.snoopFanout::stdev                    0                       # Request fanout histogram (Count)
system.membus.snoopFanout::underflows               0      0.00%      0.00% # Request fanout histogram (Count)
system.membus.snoopFanout::0                   219775    100.00%    100.00% # Request fanout histogram (Count)
system.membus.snoopFanout::1                        0      0.00%    100.00% # Request fanout histogram (Count)
system.membus.snoopFanout::overflows                0      0.00%    100.00% # Request fanout histogram (Count)
system.membus.snoopFanout::min_value                0                       # Request fanout histogram (Count)
system.membus.snoopFanout::max_value                0                       # Request fanout histogram (Count)
system.membus.snoopFanout::total               219775                       # Request fanout histogram (Count)
system.membus.power_state.pwrStateResidencyTicks::UNDEFINED 2416534772000                       # Cumulative time (in ticks) in various power states (Tick)
system.membus.reqLayer2.occupancy           535330000                       # Layer occupancy (ticks) (Tick)
system.membus.reqLayer2.utilization               0.0                       # Layer utilization (Ratio)
system.membus.respLayer0.occupancy         1180888500                       # Layer occupancy (ticks) (Tick)
system.membus.respLayer0.utilization              0.0                       # Layer utilization (Ratio)
system.membus.snoop_filter.totRequests         282982                       # Total number of requests made to the snoop filter. (Count)
system.membus.snoop_filter.hitSingleRequests        63207                       # Number of requests hitting in the snoop filter with a single holder of the requested data. (Count)
system.membus.snoop_filter.hitMultiRequests            0                       # Number of requests hitting in the snoop filter with multiple (>1) holders of the requested data. (Count)
system.membus.snoop_filter.totSnoops                0                       # Total number of snoops made to the snoop filter. (Count)
system.membus.snoop_filter.hitSingleSnoops            0                       # Number of snoops hitting in the snoop filter with a single holder of the requested data. (Count)
system.membus.snoop_filter.hitMultiSnoops            0                       # Number of snoops hitting in the snoop filter with multiple (>1) holders of the requested data. (Count)
system.workload.inst.arm                            0                       # number of arm instructions executed (Count)
system.workload.inst.quiesce                        0                       # number of quiesce instructions executed (Count)

---------- End Simulation Statistics   ----------
